<add name="RecipeStepsAdd" pipeline="linq" mode="@(Mode)">

  <parameters>
    <add name="Mode" value="default" />
    <add name="Password" value="*" />
  </parameters>

  <connections>
    <add name="input" provider="file" file="e:\Code\mydd\mydd\tfl\output\steps.xml" />
    <add name="output" provider="postgresql" port="5432" database="TflMyDD" user="postgres" password="@(Password)" />
  </connections>

  <entities>
    <add name="Element" connection="input">
      <fields>
        <add name="xml" length="max" output="false">
          <transforms>
            <add method="fromxml" xml-mode="All">
              <fields>
                <add name="add" length="max" read-inner-xml="false" primary-key="true" />
              </fields>
            </add>
          </transforms>
        </add>
      </fields>
    </add>
  </entities>

</add>
